ytopt-libe/uqgrid/data/2bus_33.raw
0,   100.00          / PSS/E-33.2    SUN, MAR 10 2013  17:41


     1,'BUS1        ', 345.0000,3,   1,   1,   1,1.04000,  -0.0000,1.10000,0.90000,1.10000,0.90000
     2,'BUS2        ', 345.0000,1,   1,   1,   1,1.01613,  -3.3252,1.10000,0.90000,1.10000,0.90000
0 / END OF BUS DATA, BEGIN LOAD DATA
     2,'11',1,   1,   1,     103.130,     37.617,     0.000,     0.000,   0.0,   0.0,   1,1,0
0 / END OF LOAD DATA, BEGIN FIXED SHUNT DATA
0 / END OF FIXED SHUNT DATA, BEGIN GENERATOR DATA
     1,'1 ',   106.496,    45.996,   300.000,  -300.000,1.04000,     0,   100.000, 0.00000E+0, 1.000, 0.00000E+0, 0.00000E+0,1.00000,1,  100.0,   999.000,    10.000,   1,1.0000
0 / END OF GENERATOR DATA, BEGIN BRANCH DATA
     1,     2,'1 ', 1.00000E-4, 5.76000E-2,   0.00010,  250.00,  250.00,  250.00,  0.00000,  0.00000,  0.00000,  0.00000,1,1,   0.00,   1,1.0000
0 / END OF BRANCH DATA, BEGIN TRANSFORMER DATA
0 / END OF TRANSFORMER DATA, BEGIN AREA DATA
   1,     1,     0.000,    10.000,'            '
0 / END OF AREA DATA, BEGIN TWO-TERMINAL DC DATA
0 / END OF TWO-TERMINAL DC DATA, BEGIN VSC DC LINE DATA
0 / END OF VSC DC LINE DATA, BEGIN IMPEDANCE CORRECTION DATA
0 / END OF IMPEDANCE CORRECTION DATA, BEGIN MULTI-TERMINAL DC DATA
0 / END OF MULTI-TERMINAL DC DATA, BEGIN MULTI-SECTION LINE DATA
0 / END OF MULTI-SECTION LINE DATA, BEGIN ZONE DATA
0 / END OF ZONE DATA, BEGIN INTER-AREA TRANSFER DATA
0 / END OF INTER-AREA TRANSFER DATA, BEGIN OWNER DATA
0 / END OF OWNER DATA, BEGIN FACTS DEVICE DATA
0 / END OF FACTS DEVICE DATA, BEGIN SWITCHED SHUNT DATA
0 / END OF SWITCHED SHUNT DATA, BEGIN GNE DATA
0 / END OF GNE DATA, BEGIN INDUCTION MACHINE DATA
0 / END OF INDUCTION MACHINE DATA
